# Maintainer: Philip Müller <philm@manjarolinux.org>
# Co-Maintainer: Guinux <nuxgui@gmail.com>

_linuxprefix=linux-rt-manjaro
_extramodules=extramodules-4.6-rt-MANJARO
pkgname=$_linuxprefix-nvidiabl
_pkgname=nvidiabl
pkgver=0.88
pkgrel=1
epoch=
pkgdesc="Driver to adjust display backlight on modern mobile NVidia graphics adapters."
arch=('x86_64' 'i686')
url="https://github.com/guillaumezin/nvidiabl"
license=('GPL')
depends=()
makedepends=("$_linuxprefix-headers")
optdepends=()
conflicts=(nvidia-bl)
provides=("$_pkgname=$pkgver")
groups=("$_linuxprefix-extramodules")
install=$_pkgname.install
source=(https://github.com/guillaumezin/nvidiabl/archive/master.zip 
        nvidiabl-master.patch)
md5sums=('5fdda33fedcb78320c1581e84b395d39'
         '79e5699da970908d6ec8dba114df87cb')

prepare() {
  cd "${srcdir}/nvidiabl-master/"
  patch -p1 -i "${srcdir}/nvidiabl-master.patch"
}

build() {
  _kernver="$(cat /usr/lib/modules/${_extramodules}/version)"

  cd "${srcdir}/nvidiabl-master/"
  make KVER="${_kernver}"
}

package() {
  _kernver="$(cat /usr/lib/modules/${_extramodules}/version)"

  cd "${srcdir}/nvidiabl-master/"
  MODPATH="${pkgdir}/usr/lib/modules/${_extramodules}/"
  install -d $MODPATH
  install -m 644 -c nvidiabl.ko $MODPATH
  sed -i -e "s/EXTRAMODULES='.*'/EXTRAMODULES='${_extramodules}'/" "${startdir}/nvidiabl.install"
  sed -i -e "s/VERSION='.*'/VERSION='${_linuxprefix}'/" "${startdir}/nvidiabl.install"
}

# vim:set ts=2 sw=2 et:
